[root]
type=Root
children=system
eventq_index=0
full_system=false
sim_quantum=0
time_sync_enable=false
time_sync_period=100000000000
time_sync_spin_threshold=100000000

[system]
type=System
children=clk_domain cpu cpu_clk_domain cpu_voltage_domain dmabridge dvfs_handler ibv ibv_test intrctrl iobridge iobus mem_ctrls membus nic_platform redirect_paths0 redirect_paths1 redirect_paths2 voltage_domain
byte_order=little
cache_line_size=64
eventq_index=0
exit_on_work_items=false
init_param=0
kvm_vm=Null
m5ops_base=4294901760
mem_mode=atomic
mem_ranges=0:536870912
memories=system.mem_ctrls.dram
mmap_using_noreserve=false
multi_thread=false
num_work_ids=16
readfile=
redirect_paths=system.redirect_paths0 system.redirect_paths1 system.redirect_paths2
shared_backstore=
symbolfile=
thermal_components=
thermal_model=Null
work_begin_ckpt_count=0
work_begin_cpu_id_exit=-1
work_begin_exit_count=0
work_cpus_ckpt_count=0
work_end_ckpt_count=0
work_end_exit_count=0
work_item_id=-1
workload=Null
system_port=system.membus.cpu_side_ports[0]

[system.clk_domain]
type=SrcClockDomain
clock=1000
domain_id=-1
eventq_index=0
init_perf_level=0
voltage_domain=system.voltage_domain

[system.cpu]
type=AtomicSimpleCPU
children=dtb interrupts isa itb power_state tracer workload
branchPred=Null
checker=Null
clk_domain=system.cpu_clk_domain
cpu_id=0
do_checkpoint_insts=true
do_statistics_insts=true
dtb=system.cpu.dtb
eventq_index=0
function_trace=false
function_trace_start=0
interrupts=system.cpu.interrupts
isa=system.cpu.isa
itb=system.cpu.itb
max_insts_all_threads=0
max_insts_any_thread=0
numThreads=1
power_gating_on_idle=false
power_model=
power_state=system.cpu.power_state
progress_interval=0
pwr_gating_latency=300
simpoint_start_insts=
simulate_data_stalls=false
simulate_inst_stalls=false
socket_id=0
switched_out=false
syscallRetryLatency=200
system=system
tracer=system.cpu.tracer
wait_for_remote_gdb=false
width=1
workload=system.cpu.workload
dcache_port=system.membus.cpu_side_ports[2]
icache_port=system.membus.cpu_side_ports[1]

[system.cpu.dtb]
type=X86TLB
children=walker
eventq_index=0
size=64
system=system
walker=system.cpu.dtb.walker

[system.cpu.dtb.walker]
type=X86PagetableWalker
children=power_state
clk_domain=system.cpu_clk_domain
eventq_index=0
num_squash_per_cycle=4
power_model=
power_state=system.cpu.dtb.walker.power_state
system=system
port=system.membus.cpu_side_ports[4]

[system.cpu.dtb.walker.power_state]
type=PowerState
clk_gate_bins=20
clk_gate_max=1000000000000
clk_gate_min=1000
default_state=UNDEFINED
eventq_index=0
leaders=
possible_states=

[system.cpu.interrupts]
type=X86LocalApic
children=clk_domain
clk_domain=system.cpu.interrupts.clk_domain
eventq_index=0
int_latency=1000
pio_latency=100000
system=system
int_requestor=system.membus.cpu_side_ports[5]
int_responder=system.membus.mem_side_ports[1]
pio=system.membus.mem_side_ports[0]

[system.cpu.interrupts.clk_domain]
type=DerivedClockDomain
clk_divider=16
clk_domain=system.cpu_clk_domain
eventq_index=0

[system.cpu.isa]
type=X86ISA
eventq_index=0

[system.cpu.itb]
type=X86TLB
children=walker
eventq_index=0
size=64
system=system
walker=system.cpu.itb.walker

[system.cpu.itb.walker]
type=X86PagetableWalker
children=power_state
clk_domain=system.cpu_clk_domain
eventq_index=0
num_squash_per_cycle=4
power_model=
power_state=system.cpu.itb.walker.power_state
system=system
port=system.membus.cpu_side_ports[3]

[system.cpu.itb.walker.power_state]
type=PowerState
clk_gate_bins=20
clk_gate_max=1000000000000
clk_gate_min=1000
default_state=UNDEFINED
eventq_index=0
leaders=
possible_states=

[system.cpu.power_state]
type=PowerState
clk_gate_bins=20
clk_gate_max=1000000000000
clk_gate_min=1000
default_state=UNDEFINED
eventq_index=0
leaders=
possible_states=ON CLK_GATED OFF

[system.cpu.tracer]
type=ExeTracer
eventq_index=0

[system.cpu.workload]
type=Process
cmd=tests/test-progs/nic-ctrl/bin/loop
cwd=/home/yang/csRNA
drivers=
egid=100
env=
errout=cerr
euid=100
eventq_index=0
executable=tests/test-progs/nic-ctrl/bin/loop
gid=100
input=cin
kvmInSE=false
maxStackSize=67108864
output=cout
pgid=100
pid=100
ppid=0
release=5.1.0
simpoint=0
system=system
uid=100
useArchPT=false

[system.cpu_clk_domain]
type=SrcClockDomain
clock=500
domain_id=-1
eventq_index=0
init_perf_level=0
voltage_domain=system.cpu_voltage_domain

[system.cpu_voltage_domain]
type=VoltageDomain
eventq_index=0
voltage=1.0

[system.dmabridge]
type=Bridge
children=power_state
clk_domain=system.clk_domain
delay=250000
eventq_index=0
power_model=
power_state=system.dmabridge.power_state
ranges=0:536870912
req_size=16
resp_size=16
cpu_side_port=system.iobus.mem_side_ports[0]
mem_side_port=system.membus.cpu_side_ports[6]

[system.dmabridge.power_state]
type=PowerState
clk_gate_bins=20
clk_gate_max=1000000000000
clk_gate_min=1000
default_state=UNDEFINED
eventq_index=0
leaders=
possible_states=

[system.dvfs_handler]
type=DVFSHandler
domains=
enable=false
eventq_index=0
sys_clk_domain=system.clk_domain
transition_latency=100000000

[system.ibv]
type=Ibv
eventq_index=0
nicCtrl=system.nic_platform.nic_ctrl

[system.ibv_test]
type=IbvTest
eventq_index=0
ibv=system.ibv

[system.intrctrl]
type=IntrControl
eventq_index=0
sys=system

[system.iobridge]
type=Bridge
children=power_state
clk_domain=system.clk_domain
delay=250000
eventq_index=0
power_model=
power_state=system.iobridge.power_state
ranges=3221225472:4294901760 9223372036854775808:11529215046068469759 13835058055282163712:18446744073709551615
req_size=16
resp_size=16
cpu_side_port=system.membus.mem_side_ports[3]
mem_side_port=system.iobus.cpu_side_ports[0]

[system.iobridge.power_state]
type=PowerState
clk_gate_bins=20
clk_gate_max=1000000000000
clk_gate_min=1000
default_state=UNDEFINED
eventq_index=0
leaders=
possible_states=

[system.iobus]
type=NoncoherentXBar
children=power_state
clk_domain=system.clk_domain
eventq_index=0
forward_latency=1
frontend_latency=2
header_latency=1
power_model=
power_state=system.iobus.power_state
response_latency=2
use_default_range=false
width=16
cpu_side_ports=system.iobridge.mem_side_port system.nic_platform.rdma_nic.dma system.nic_platform.nic_ctrl.dma
default=system.nic_platform.pci_host.pio
mem_side_ports=system.dmabridge.cpu_side_port system.nic_platform.rdma_nic.pio system.nic_platform.nic_ctrl.pio

[system.iobus.power_state]
type=PowerState
clk_gate_bins=20
clk_gate_max=1000000000000
clk_gate_min=1000
default_state=UNDEFINED
eventq_index=0
leaders=
possible_states=

[system.mem_ctrls]
type=MemCtrl
children=dram power_state
clk_domain=system.clk_domain
command_window=10000
dram=system.mem_ctrls.dram
eventq_index=0
mem_sched_policy=frfcfs
min_writes_per_switch=16
nvm=Null
power_model=
power_state=system.mem_ctrls.power_state
qos_policy=Null
qos_priorities=1
qos_priority_escalation=false
qos_q_policy=fifo
qos_requestors=               
qos_syncro_scheduler=false
qos_turnaround_policy=Null
static_backend_latency=10000
static_frontend_latency=10000
system=system
write_high_thresh_perc=85
write_low_thresh_perc=50
port=system.membus.mem_side_ports[2]

[system.mem_ctrls.dram]
type=DRAMInterface
children=power_state
IDD0=0.055
IDD02=0.0
IDD2N=0.032
IDD2N2=0.0
IDD2P0=0.0
IDD2P02=0.0
IDD2P1=0.032
IDD2P12=0.0
IDD3N=0.038
IDD3N2=0.0
IDD3P0=0.0
IDD3P02=0.0
IDD3P1=0.038
IDD3P12=0.0
IDD4R=0.157
IDD4R2=0.0
IDD4W=0.125
IDD4W2=0.0
IDD5=0.23500000000000001
IDD52=0.0
IDD6=0.02
IDD62=0.0
VDD=1.5
VDD2=0.0
activation_limit=4
addr_mapping=RoRaBaCoCh
bank_groups_per_rank=0
banks_per_rank=8
beats_per_clock=2
burst_length=8
clk_domain=system.clk_domain
conf_table_reported=true
data_clock_sync=false
device_bus_width=8
device_rowbuffer_size=1024
device_size=536870912
devices_per_rank=8
dll=true
enable_dram_powerdown=false
eventq_index=0
image_file=
in_addr_map=true
kvm_map=true
max_accesses_per_row=16
null=false
page_policy=open_adaptive
power_model=
power_state=system.mem_ctrls.dram.power_state
range=0:536870912
ranks_per_channel=2
read_buffer_size=32
tAAD=1250
tBURST=5000
tBURST_MAX=5000
tBURST_MIN=5000
tCCD_L=0
tCCD_L_WR=0
tCK=1250
tCL=13750
tCS=2500
tPPD=0
tRAS=35000
tRCD=13750
tREFI=7800000
tRFC=260000
tRP=13750
tRRD=6000
tRRD_L=0
tRTP=7500
tRTW=2500
tWR=15000
tWTR=7500
tWTR_L=7500
tXAW=30000
tXP=6000
tXPDLL=0
tXS=270000
tXSDLL=0
two_cycle_activate=false
write_buffer_size=64

[system.mem_ctrls.dram.power_state]
type=PowerState
clk_gate_bins=20
clk_gate_max=1000000000000
clk_gate_min=1000
default_state=UNDEFINED
eventq_index=0
leaders=
possible_states=

[system.mem_ctrls.power_state]
type=PowerState
clk_gate_bins=20
clk_gate_max=1000000000000
clk_gate_min=1000
default_state=UNDEFINED
eventq_index=0
leaders=
possible_states=

[system.membus]
type=CoherentXBar
children=power_state snoop_filter
clk_domain=system.clk_domain
eventq_index=0
forward_latency=4
frontend_latency=3
header_latency=1
max_outstanding_snoops=512
max_routing_table_size=512
point_of_coherency=true
point_of_unification=true
power_model=
power_state=system.membus.power_state
response_latency=2
snoop_filter=system.membus.snoop_filter
snoop_response_latency=4
system=system
use_default_range=false
width=16
cpu_side_ports=system.system_port system.cpu.icache_port system.cpu.dcache_port system.cpu.itb.walker.port system.cpu.dtb.walker.port system.cpu.interrupts.int_requestor system.dmabridge.mem_side_port
mem_side_ports=system.cpu.interrupts.pio system.cpu.interrupts.int_responder system.mem_ctrls.port system.iobridge.cpu_side_port

[system.membus.power_state]
type=PowerState
clk_gate_bins=20
clk_gate_max=1000000000000
clk_gate_min=1000
default_state=UNDEFINED
eventq_index=0
leaders=
possible_states=

[system.membus.snoop_filter]
type=SnoopFilter
eventq_index=0
lookup_latency=1
max_capacity=8388608
system=system

[system.nic_platform]
type=RnicPlatform
children=nic_ctrl pci_host rdma_nic
eventq_index=0
intrctrl=system.intrctrl
system=system

[system.nic_platform.nic_ctrl]
type=NicCtrl
children=power_state
BAR0=0
BAR0LegacyIO=false
BAR0Size=1024
BAR1=0
BAR1LegacyIO=false
BAR1Size=0
BAR2=0
BAR2LegacyIO=false
BAR2Size=0
BAR3=0
BAR3LegacyIO=false
BAR3Size=0
BAR4=0
BAR4LegacyIO=false
BAR4Size=0
BAR5=0
BAR5LegacyIO=false
BAR5Size=0
BIST=0
CacheLineSize=0
CapabilityPtr=0
CardbusCIS=0
ClassCode=2
Command=0
DeviceID=4213
ExpansionROM=0
HeaderType=0
InterruptLine=30
InterruptPin=1
LatencyTimer=0
LegacyIOBase=0
MSICAPBaseOffset=0
MSICAPCapId=0
MSICAPMaskBits=0
MSICAPMsgAddr=0
MSICAPMsgCtrl=0
MSICAPMsgData=0
MSICAPMsgUpperAddr=0
MSICAPNextCapability=0
MSICAPPendingBits=0
MSIXCAPBaseOffset=0
MSIXCAPCapId=0
MSIXCAPNextCapability=0
MSIXMsgCtrl=0
MSIXPbaOffset=0
MSIXTableOffset=0
MaximumLatency=0
MinimumGrant=255
PMCAPBaseOffset=0
PMCAPCapId=0
PMCAPCapabilities=0
PMCAPCtrlStatus=0
PMCAPNextCapability=0
PXCAPBaseOffset=0
PXCAPCapId=0
PXCAPCapabilities=0
PXCAPDevCap2=0
PXCAPDevCapabilities=0
PXCAPDevCtrl=0
PXCAPDevCtrl2=0
PXCAPDevStatus=0
PXCAPLinkCap=0
PXCAPLinkCtrl=0
PXCAPLinkStatus=0
PXCAPNextCapability=0
ProgIF=0
Revision=0
Status=0
SubClassCode=0
SubsystemID=4104
SubsystemVendorID=32902
VendorID=32902
base_addr=14987979559889010688
clk_domain=system.clk_domain
config_latency=20000
cpu_num=10
cqc_cache_num=2000
dma_read_delay=500000
dma_write_delay=250000
ether_speed=8000.000000
eventq_index=0
host=system.nic_platform.pci_host
link_delay=1000000
mpt_cache_num=40000
mtt_cache_num=50000
pci_bus=1
pci_dev=1
pci_func=1
pci_speed=800.000000
pio_latency=30000
power_model=
power_state=system.nic_platform.nic_ctrl.power_state
qpc_cache_cap=100
reorder_cap=100
rnic=system.nic_platform.rdma_nic
sid=0
ssid=0
system=system
dma=system.iobus.cpu_side_ports[2]
pio=system.iobus.mem_side_ports[2]

[system.nic_platform.nic_ctrl.power_state]
type=PowerState
clk_gate_bins=20
clk_gate_max=1000000000000
clk_gate_min=1000
default_state=UNDEFINED
eventq_index=0
leaders=
possible_states=

[system.nic_platform.pci_host]
type=GenericPciHost
children=power_state
clk_domain=system.clk_domain
conf_base=13835058055282163712
conf_device_bits=8
conf_size=16777216
eventq_index=0
pci_dma_base=0
pci_mem_base=0
pci_pio_base=9223372036854775808
platform=system.nic_platform
power_model=
power_state=system.nic_platform.pci_host.power_state
system=system
pio=system.iobus.default

[system.nic_platform.pci_host.power_state]
type=PowerState
clk_gate_bins=20
clk_gate_max=1000000000000
clk_gate_min=1000
default_state=UNDEFINED
eventq_index=0
leaders=
possible_states=

[system.nic_platform.rdma_nic]
type=HanGuRnic
children=power_state
BAR0=0
BAR0LegacyIO=false
BAR0Size=1024
BAR1=0
BAR1LegacyIO=false
BAR1Size=0
BAR2=0
BAR2LegacyIO=false
BAR2Size=0
BAR3=0
BAR3LegacyIO=false
BAR3Size=0
BAR4=0
BAR4LegacyIO=false
BAR4Size=0
BAR5=0
BAR5LegacyIO=false
BAR5Size=0
BIST=0
CacheLineSize=0
CapabilityPtr=0
CardbusCIS=0
ClassCode=2
Command=0
DeviceID=4213
ExpansionROM=0
HeaderType=0
InterruptLine=30
InterruptPin=1
LatencyTimer=0
LegacyIOBase=0
MSICAPBaseOffset=0
MSICAPCapId=0
MSICAPMaskBits=0
MSICAPMsgAddr=0
MSICAPMsgCtrl=0
MSICAPMsgData=0
MSICAPMsgUpperAddr=0
MSICAPNextCapability=0
MSICAPPendingBits=0
MSIXCAPBaseOffset=0
MSIXCAPCapId=0
MSIXCAPNextCapability=0
MSIXMsgCtrl=0
MSIXPbaOffset=0
MSIXTableOffset=0
MaximumLatency=0
MinimumGrant=255
PMCAPBaseOffset=0
PMCAPCapId=0
PMCAPCapabilities=0
PMCAPCtrlStatus=0
PMCAPNextCapability=0
PXCAPBaseOffset=0
PXCAPCapId=0
PXCAPCapabilities=0
PXCAPDevCap2=0
PXCAPDevCapabilities=0
PXCAPDevCtrl=0
PXCAPDevCtrl2=0
PXCAPDevStatus=0
PXCAPLinkCap=0
PXCAPLinkCtrl=0
PXCAPLinkStatus=0
PXCAPNextCapability=0
ProgIF=0
Revision=0
Status=0
SubClassCode=0
SubsystemID=4104
SubsystemVendorID=32902
VendorID=32902
clk_domain=system.clk_domain
config_latency=20000
cpu_num=1
cqc_cache_num=2000
dma_read_delay=500000
dma_write_delay=250000
ether_speed=800.000000
eventq_index=0
host=system.nic_platform.pci_host
link_delay=1000000
mac_addr=2864434397
mpt_cache_num=40000
mtt_cache_num=50000
pci_bus=0
pci_dev=0
pci_func=0
pci_speed=800.000000
pio_latency=30000
power_model=
power_state=system.nic_platform.rdma_nic.power_state
qpc_cache_cap=50
reorder_cap=100
sid=0
ssid=0
system=system
dma=system.iobus.cpu_side_ports[1]
pio=system.iobus.mem_side_ports[1]

[system.nic_platform.rdma_nic.power_state]
type=PowerState
clk_gate_bins=20
clk_gate_max=1000000000000
clk_gate_min=1000
default_state=UNDEFINED
eventq_index=0
leaders=
possible_states=

[system.redirect_paths0]
type=RedirectPath
app_path=/proc
eventq_index=0
host_paths=ebug-break=1000/fs/proc

[system.redirect_paths1]
type=RedirectPath
app_path=/sys
eventq_index=0
host_paths=ebug-break=1000/fs/sys

[system.redirect_paths2]
type=RedirectPath
app_path=/tmp
eventq_index=0
host_paths=ebug-break=1000/fs/tmp

[system.voltage_domain]
type=VoltageDomain
eventq_index=0
voltage=1.0

